data_image0
_cell_length_a       4.2117
_cell_length_b       4.2117
_cell_length_c       130.607
_cell_angle_alpha    90
_cell_angle_beta     90
_cell_angle_gamma    90

_symmetry_space_group_name_H-M    "P 1"
_symmetry_int_tables_number       1

loop_
  _symmetry_equiv_pos_as_xyz
  'x, y, z'

loop_
  _atom_site_label
  _atom_site_occupancy
  _atom_site_Cartn_x
  _atom_site_Cartn_y
  _atom_site_Cartn_z
  _atom_site_thermal_displace_type
  _atom_site_B_iso_or_equiv
  _atom_site_type_symbol
  Mg1      1.0000 0.00000  0.00000  65.25410  Biso   1.000  Mg
  Mg2      1.0000 2.10585  2.10585  65.25410  Biso   1.000  Mg
  Mg3      1.0000 0.00000  2.10585  63.17996  Biso   1.000  Mg
  Mg4      1.0000 2.10585  0.00000  63.17996  Biso   1.000  Mg
  Mg5      1.0000 0.00000  0.00000  61.06904  Biso   1.000  Mg
  Mg6      1.0000 2.10585  2.10585  61.06904  Biso   1.000  Mg
  Mg7      1.0000 0.00000  2.10585  58.96389  Biso   1.000  Mg
  Mg8      1.0000 2.10585  0.00000  58.96389  Biso   1.000  Mg
  Mg9      1.0000 0.00000  0.00000  56.85790  Biso   1.000  Mg
  Mg10     1.0000 2.10585  2.10585  56.85790  Biso   1.000  Mg
  Mg11     1.0000 0.00000  2.10585  54.75207  Biso   1.000  Mg
  Mg12     1.0000 2.10585  0.00000  54.75207  Biso   1.000  Mg
  Mg13     1.0000 0.00000  0.00000  52.64622  Biso   1.000  Mg
  Mg14     1.0000 2.10585  2.10585  52.64622  Biso   1.000  Mg
  Mg15     1.0000 0.00000  2.10585  50.54037  Biso   1.000  Mg
  Mg16     1.0000 2.10585  0.00000  50.54037  Biso   1.000  Mg
  Mg17     1.0000 0.00000  0.00000  48.43452  Biso   1.000  Mg
  Mg18     1.0000 2.10585  2.10585  48.43452  Biso   1.000  Mg
  Mg19     1.0000 0.00000  2.10585  46.32868  Biso   1.000  Mg
  Mg20     1.0000 2.10585  0.00000  46.32868  Biso   1.000  Mg
  Mg21     1.0000 0.00000  0.00000  44.22283  Biso   1.000  Mg
  Mg22     1.0000 2.10585  2.10585  44.22283  Biso   1.000  Mg
  Mg23     1.0000 0.00000  2.10585  42.11698  Biso   1.000  Mg
  Mg24     1.0000 2.10585  0.00000  42.11698  Biso   1.000  Mg
  Mg25     1.0000 0.00000  0.00000  40.01113  Biso   1.000  Mg
  Mg26     1.0000 2.10585  2.10585  40.01113  Biso   1.000  Mg
  Mg27     1.0000 0.00000  2.10585  37.90528  Biso   1.000  Mg
  Mg28     1.0000 2.10585  0.00000  37.90528  Biso   1.000  Mg
  Mg29     1.0000 0.00000  0.00000  35.79943  Biso   1.000  Mg
  Mg30     1.0000 2.10585  2.10585  35.79943  Biso   1.000  Mg
  Mg31     1.0000 0.00000  2.10585  33.69358  Biso   1.000  Mg
  Mg32     1.0000 2.10585  0.00000  33.69358  Biso   1.000  Mg
  Mg33     1.0000 0.00000  0.00000  31.58773  Biso   1.000  Mg
  Mg34     1.0000 2.10585  2.10585  31.58773  Biso   1.000  Mg
  Mg35     1.0000 0.00000  2.10585  29.48188  Biso   1.000  Mg
  Mg36     1.0000 2.10585  0.00000  29.48188  Biso   1.000  Mg
  Mg37     1.0000 0.00000  0.00000  27.37604  Biso   1.000  Mg
  Mg38     1.0000 2.10585  2.10585  27.37604  Biso   1.000  Mg
  Mg39     1.0000 0.00000  2.10585  25.27019  Biso   1.000  Mg
  Mg40     1.0000 2.10585  0.00000  25.27019  Biso   1.000  Mg
  O1       1.0000 0.00000  2.10585  65.30325  Biso   1.000  O
  O2       1.0000 2.10585  0.00000  65.30325  Biso   1.000  O
  O3       1.0000 0.00000  0.00000  63.17253  Biso   1.000  O
  O4       1.0000 2.10585  2.10585  63.17253  Biso   1.000  O
  O5       1.0000 0.00000  2.10585  61.07031  Biso   1.000  O
  O6       1.0000 2.10585  0.00000  61.07031  Biso   1.000  O
  O7       1.0000 0.00000  0.00000  58.96366  Biso   1.000  O
  O8       1.0000 2.10585  2.10585  58.96366  Biso   1.000  O
  O9       1.0000 0.00000  2.10585  56.85794  Biso   1.000  O
  O10      1.0000 2.10585  0.00000  56.85794  Biso   1.000  O
  O11      1.0000 0.00000  0.00000  54.75207  Biso   1.000  O
  O12      1.0000 2.10585  2.10585  54.75207  Biso   1.000  O
  O13      1.0000 0.00000  2.10585  52.64622  Biso   1.000  O
  O14      1.0000 2.10585  0.00000  52.64622  Biso   1.000  O
  O15      1.0000 0.00000  0.00000  50.54037  Biso   1.000  O
  O16      1.0000 2.10585  2.10585  50.54037  Biso   1.000  O
  O17      1.0000 0.00000  2.10585  48.43452  Biso   1.000  O
  O18      1.0000 2.10585  0.00000  48.43452  Biso   1.000  O
  O19      1.0000 0.00000  0.00000  46.32868  Biso   1.000  O
  O20      1.0000 2.10585  2.10585  46.32868  Biso   1.000  O
  O21      1.0000 0.00000  2.10585  44.22283  Biso   1.000  O
  O22      1.0000 2.10585  0.00000  44.22283  Biso   1.000  O
  O23      1.0000 0.00000  0.00000  42.11698  Biso   1.000  O
  O24      1.0000 2.10585  2.10585  42.11698  Biso   1.000  O
  O25      1.0000 0.00000  2.10585  40.01113  Biso   1.000  O
  O26      1.0000 2.10585  0.00000  40.01113  Biso   1.000  O
  O27      1.0000 0.00000  0.00000  37.90528  Biso   1.000  O
  O28      1.0000 2.10585  2.10585  37.90528  Biso   1.000  O
  O29      1.0000 0.00000  2.10585  35.79943  Biso   1.000  O
  O30      1.0000 2.10585  0.00000  35.79943  Biso   1.000  O
  O31      1.0000 0.00000  0.00000  33.69358  Biso   1.000  O
  O32      1.0000 2.10585  2.10585  33.69358  Biso   1.000  O
  O33      1.0000 0.00000  2.10585  31.58773  Biso   1.000  O
  O34      1.0000 2.10585  0.00000  31.58773  Biso   1.000  O
  O35      1.0000 0.00000  0.00000  29.48188  Biso   1.000  O
  O36      1.0000 2.10585  2.10585  29.48188  Biso   1.000  O
  O37      1.0000 0.00000  2.10585  27.37604  Biso   1.000  O
  O38      1.0000 2.10585  0.00000  27.37604  Biso   1.000  O
  O39      1.0000 0.00000  0.00000  25.27019  Biso   1.000  O
  O40      1.0000 2.10585  2.10585  25.27019  Biso   1.000  O
  Mg41     1.0000 0.00000  0.00000  23.16434  Biso   1.000  Mg
  Mg42     1.0000 2.10585  2.10585  23.16434  Biso   1.000  Mg
  Mg43     1.0000 0.00000  2.10585  21.05849  Biso   1.000  Mg
  Mg44     1.0000 2.10585  0.00000  21.05849  Biso   1.000  Mg
  Mg45     1.0000 0.00000  0.00000  18.95264  Biso   1.000  Mg
  Mg46     1.0000 2.10585  2.10585  18.95264  Biso   1.000  Mg
  Mg47     1.0000 0.00000  2.10585  16.84679  Biso   1.000  Mg
  Mg48     1.0000 2.10585  0.00000  16.84679  Biso   1.000  Mg
  Mg49     1.0000 0.00000  0.00000  14.74094  Biso   1.000  Mg
  Mg50     1.0000 2.10585  2.10585  14.74094  Biso   1.000  Mg
  Mg51     1.0000 0.00000  2.10585  12.63509  Biso   1.000  Mg
  Mg52     1.0000 2.10585  0.00000  12.63509  Biso   1.000  Mg
  Mg53     1.0000 0.00000  0.00000  10.52924  Biso   1.000  Mg
  Mg54     1.0000 2.10585  2.10585  10.52924  Biso   1.000  Mg
  Mg55     1.0000 0.00000  2.10585  8.42340  Biso   1.000  Mg
  Mg56     1.0000 2.10585  0.00000  8.42340  Biso   1.000  Mg
  Mg57     1.0000 0.00000  0.00000  6.31755  Biso   1.000  Mg
  Mg58     1.0000 2.10585  2.10585  6.31755  Biso   1.000  Mg
  Mg59     1.0000 0.00000  2.10585  4.21170  Biso   1.000  Mg
  Mg60     1.0000 2.10585  0.00000  4.21170  Biso   1.000  Mg
  Mg61     1.0000 0.00000  0.00000  2.10585  Biso   1.000  Mg
  Mg62     1.0000 2.10585  2.10585  2.10585  Biso   1.000  Mg
  Mg63     1.0000 0.00000  2.10585  0.00000  Biso   1.000  Mg
  Mg64     1.0000 2.10585  0.00000  0.00000  Biso   1.000  Mg
  O41      1.0000 0.00000  2.10585  23.16434  Biso   1.000  O
  O42      1.0000 2.10585  0.00000  23.16434  Biso   1.000  O
  O43      1.0000 0.00000  0.00000  21.05849  Biso   1.000  O
  O44      1.0000 2.10585  2.10585  21.05849  Biso   1.000  O
  O45      1.0000 0.00000  2.10585  18.95264  Biso   1.000  O
  O46      1.0000 2.10585  0.00000  18.95264  Biso   1.000  O
  O47      1.0000 0.00000  0.00000  16.84679  Biso   1.000  O
  O48      1.0000 2.10585  2.10585  16.84679  Biso   1.000  O
  O49      1.0000 0.00000  2.10585  14.74094  Biso   1.000  O
  O50      1.0000 2.10585  0.00000  14.74094  Biso   1.000  O
  O51      1.0000 0.00000  0.00000  12.63509  Biso   1.000  O
  O52      1.0000 2.10585  2.10585  12.63509  Biso   1.000  O
  O53      1.0000 0.00000  2.10585  10.52924  Biso   1.000  O
  O54      1.0000 2.10585  0.00000  10.52924  Biso   1.000  O
  O55      1.0000 0.00000  0.00000  8.42340  Biso   1.000  O
  O56      1.0000 2.10585  2.10585  8.42340  Biso   1.000  O
  O57      1.0000 0.00000  2.10585  6.31755  Biso   1.000  O
  O58      1.0000 2.10585  0.00000  6.31755  Biso   1.000  O
  O59      1.0000 0.00000  0.00000  4.21170  Biso   1.000  O
  O60      1.0000 2.10585  2.10585  4.21170  Biso   1.000  O
  O61      1.0000 0.00000  2.10585  2.10585  Biso   1.000  O
  O62      1.0000 2.10585  0.00000  2.10585  Biso   1.000  O
  O63      1.0000 0.00000  0.00000  0.00000  Biso   1.000  O
  O64      1.0000 2.10585  2.10585  0.00000  Biso   1.000  O
